psse/psse-converter/src/test/resources/raw-export-failing.xiidm
<?xml version="1.0" encoding="UTF-8"?>
<iidm:network xmlns:iidm="http://www.powsybl.org/schema/iidm/1_18" id="N400_3S" caseDate="2026-02-05T20:44:33.788Z" forecastDistance="0" sourceFormat="demo" minimumValidationLevel="STEADY_STATE_HYPOTHESIS">
    <iidm:substation id="S1" name="S1" country="CZ">
        <iidm:voltageLevel id="VL1_400" name="VL1_400" nominalV="400.0" topologyKind="BUS_BREAKER">
            <iidm:busBreakerTopology>
                <iidm:bus id="B1" name="B1"/>
            </iidm:busBreakerTopology>
            <iidm:generator id="G1" name="G1" energySource="OTHER" minP="0.0" maxP="2000.0" targetP="800.0" localTargetV="400.0" bus="B1" connectableBus="B1">
                <iidm:minMaxReactiveLimits minQ="-20.0" maxQ="25.0"/>
                <iidm:voltageRegulation mode="VOLTAGE" regulating="true"/>
            </iidm:generator>
        </iidm:voltageLevel>
    </iidm:substation>
    <iidm:substation id="S2" name="S2" country="CZ">
        <iidm:voltageLevel id="VL2_400" name="VL2_400" nominalV="400.0" topologyKind="BUS_BREAKER">
            <iidm:busBreakerTopology>
                <iidm:bus id="B2" name="B2"/>
            </iidm:busBreakerTopology>
            <iidm:load id="LD2" name="Load@S2" loadType="UNDEFINED" p0="300.0" q0="60.0" bus="B2" connectableBus="B2"/>
        </iidm:voltageLevel>
    </iidm:substation>
    <iidm:substation id="S3" name="S3" country="CZ">
        <iidm:voltageLevel id="VL3_400" name="VL3_400" nominalV="400.0" topologyKind="BUS_BREAKER">
            <iidm:busBreakerTopology>
                <iidm:bus id="B3" name="B3"/>
            </iidm:busBreakerTopology>
        </iidm:voltageLevel>
    </iidm:substation>
    <iidm:line id="L12" name="S1-S2" r="0.02" x="0.25" voltageLevelId1="VL1_400" bus1="B1" connectableBus1="B1" voltageLevelId2="VL2_400" bus2="B2" connectableBus2="B2"/>
    <iidm:line id="L23" name="S2-S3" r="0.02" x="0.25" voltageLevelId1="VL2_400" connectableBus1="B2" voltageLevelId2="VL3_400" connectableBus2="B3"/>
</iidm:network>
